jiaxincui@Jiaxins-MacBook-Pro-2 LLM-Automation % /usr/local/bin/python3.10 /Users/jiaxincui/VSCode/LLM-Automation/scripts/claudeopus4/version2/executio
n3/step3
=== Step 3: Mark Repeat Appointments ===
Input file: scripts/claudeopus4/version2/execution3/analysis_data/step2_key_columns_data.csv
Output file: scripts/claudeopus4/version2/execution3/analysis_data/step3_repeats_marked.csv

Reading key columns dataset...
✅ Successfully loaded data: 3718 rows, 5 columns
Columns: reappointed, name, position, org, year

✅ Stored original 'reappointed' values in 'original_reappointed' column

=== Initial Data Statistics ===
Total records: 3718
Records with complete name-position-org: 3661
Original reappointed=True count: 874

=== Cleaning Data for Matching ===
  - Cleaned name: 3718 non-null values
  - Cleaned position: 3718 non-null values
  - Cleaned org: 3661 non-null values

=== Sorting Data ===
✅ Data sorted by year (chronologically)

=== Creating Combination Keys ===
✅ Created combination keys for 3661 records
⚠️  Skipped 57 records with missing name/position/org

=== Marking Repeat Appointments ===
  Example 1: Amanda J. Evans - Clerk - Justice and Attorney General
    First appointed: 2013, Reappointed: 2013
  Example 2: Andrea Leger - Returning Officer - Elections New Brunswick
    First appointed: 2013, Reappointed: 2013
  Example 3: Larry Landry - chair - Justice and Attorney General
    First appointed: 2013, Reappointed: 2013
  Example 4: Lorilee Carrier - member - Health
    First appointed: 2013, Reappointed: 2013
  Example 5: Robert J. Kelly - Vice-Chairman - Environment and Local Government
    First appointed: 2013, Reappointed: 2013

✅ Marked 398 repeat appointments
📊 Unique combinations seen: 3263

=== Reappointment Analysis ===
Original reappointed=True: 874
New reappointed=True: 398
Change: -476

Changes made:
  - Changed to True: 155
  - Changed to False: 631

=== Year-wise Reappointment Statistics ===
      Total_Appointments  Reappointments  Reappointment_Rate
year                                                        
2013                 381               5               0.013
2014                 393              11               0.028
2015                 289              21               0.073
2016                 256              16               0.062
2017                 436              52               0.119
2018                 308              34               0.110
2019                 391              48               0.123
2020                 277              43               0.155
2021                 266              45               0.169
2022                 223              35               0.157
2023                 232              45               0.194
2024                 266              43               0.162

=== Top 10 Organizations by Reappointments ===
  - Executive Council Office: 94 reappointments out of 742 total (12.7%)
  - Health: 50 reappointments out of 289 total (17.3%)
  - Agriculture, Aquaculture and Fisheries: 40 reappointments out of 148 total (27.0%)
  - Post-Secondary Education Training and Labour: 40 reappointments out of 553 total (7.2%)
  - Environment and Local Government: 31 reappointments out of 185 total (16.8%)
  - Office of the Premier: 25 reappointments out of 75 total (33.3%)
  - Tourism, Heritage and Culture: 17 reappointments out of 140 total (12.1%)
  - Public Safety: 16 reappointments out of 168 total (9.5%)
  - Social Development: 15 reappointments out of 131 total (11.5%)
  - Justice: 15 reappointments out of 217 total (6.9%)

=== Top 10 People with Most Reappointments ===
  - Brenda L. Murphy: 6 reappointments
    Positions: Lieutenant-Governor
  - Jan Rademaker: 4 reappointments
    Positions: member
  - Benoit Bourque: 4 reappointments
    Positions: Member, Minister of Health, Minister of Service New Brunswick
  - Christine Evans: 4 reappointments
    Positions: Member, member
  - Roger Melanson: 4 reappointments
    Positions: Chair, Minister of Post-Secondary Education, President of Treasury Board
  - Ernie Steeves: 4 reappointments
    Positions: Chair, Minister of Finance and Treasury Board
  - Sheila Rogers: 3 reappointments
    Positions: Member, member
  - Bruce Fitch: 3 reappointments
    Positions: member of the Executive Council, Member
  - Annie Daneault: 3 reappointments
    Positions: Vice-Chair
  - Cathy LaRochelle: 3 reappointments
    Positions: Chair, member

=== Saving Dataset with Marked Repeats ===
✅ Successfully saved dataset with marked repeats
  - Output file: scripts/claudeopus4/version2/execution3/analysis_data/step3_repeats_marked.csv
  - File size: 285.10 KB
  - Total rows: 3718
  - Total columns: 6

=== Sample of Newly Marked Reappointments ===
     year                     name  ... reappointed original_reappointed
11   2013          Amanda J. Evans  ...        True                False
14   2013             Andrea Leger  ...        True                False
206  2013             Larry Landry  ...        True                False
215  2013          Lorilee Carrier  ...        True                False
323  2013          Robert J. Kelly  ...        True                False
408  2014  Brian Alexander Gallant  ...        True                False
453  2014              Denis Caron  ...        True                False
483  2014             Edith Doucet  ...        True                False
537  2014             Jane Garbutt  ...        True                False
554  2014         Jean-Marc Dupuis  ...        True                False

[10 rows x 6 columns]

=== Validation Check ===
Traceback (most recent call last):
  File "/Users/jiaxincui/VSCode/LLM-Automation/scripts/claudeopus4/version2/execution3/step3", line 244, in <module>
    main()
  File "/Users/jiaxincui/VSCode/LLM-Automation/scripts/claudeopus4/version2/execution3/step3", line 231, in main
    first_occurrence_check = df.groupby('combination_key', dropna=False).apply(
  File "/Library/Frameworks/Python.framework/Versions/3.10/lib/python3.10/site-packages/pandas/core/frame.py", line 8402, in groupby
    return DataFrameGroupBy(
  File "/Library/Frameworks/Python.framework/Versions/3.10/lib/python3.10/site-packages/pandas/core/groupby/groupby.py", line 965, in __init__
    grouper, exclusions, obj = get_grouper(
  File "/Library/Frameworks/Python.framework/Versions/3.10/lib/python3.10/site-packages/pandas/core/groupby/grouper.py", line 888, in get_grouper
    raise KeyError(gpr)
KeyError: 'combination_key'









jiaxincui@Jiaxins-MacBook-Pro-2 LLM-Automation % /usr/local/bin/python3.10 /Users/jiaxincui/VSCode/LLM-Automation/scripts/claudeopus4/vers
ion2/execution3/step9
=== Step 9: Linear Regression Analysis ===
Input file: scripts/claudeopus4/version2/execution3/analysis_data/step8_annual_proportions.csv
Output file: scripts/claudeopus4/version2/execution3/analysis_data/step9_regression_results.txt

Reading annual proportions data...
✅ Successfully loaded data: 12 years
   Columns: year, total_appointments, total_reappointments, new_appointments, reappointment_proportion, reappointment_rate_percent, new_appointment_proportion, active_organizations, yoy_appointment_change, yoy_reappointment_change, yoy_rate_change, appointment_growth_rate, reappointment_growth_rate

=== Preparing Data for Regression ===
Data points: 12
Traceback (most recent call last):
  File "/Users/jiaxincui/VSCode/LLM-Automation/scripts/claudeopus4/version2/execution3/step9", line 338, in <module>
    main()
  File "/Users/jiaxincui/VSCode/LLM-Automation/scripts/claudeopus4/version2/execution3/step9", line 71, in main
    print(f"Year range: {X.min()[0]} to {X.max()[0]}")
IndexError: invalid index to scalar variable.